Circuit: * C:\users\crossover\Desktop\My Mac Desktop\circuit simulator team4\diode test.asc

Direct Newton iteration for .op point succeeded.

Date: Fri Jun 11 21:24:05 2021
Total elapsed time: 0.152 seconds.

tnom = 27
temp = 27
method = trap
totiter = 3
traniter = 0
tranpoints = 0
accept = 0
rejected = 0
matrix size = 8
fillins = 0
solver = Normal
Matrix Compiler1:      16 opcodes
Matrix Compiler2: 500 bytes object code size
