Circuit: * C:\users\crossover\Desktop\My Mac Desktop\mosfet.asc

WARNING: Node N005 is floating.

Direct Newton iteration for .op point succeeded.

Date: Fri Jun 11 15:52:07 2021
Total elapsed time: 0.249 seconds.

tnom = 27
temp = 27
method = trap
totiter = 26
traniter = 0
tranpoints = 0
accept = 0
rejected = 0
matrix size = 7
fillins = 0
solver = Normal
Matrix Compiler1:      16 opcodes
Matrix Compiler2: 487 bytes object code size
