Circuit: * C:\users\crossover\Desktop\My Mac Desktop\test circuit 1.asc

Direct Newton iteration for .op point succeeded.

Date: Thu Jun 10 22:58:56 2021
Total elapsed time: 0.182 seconds.

tnom = 27
temp = 27
method = trap
totiter = 7
traniter = 0
tranpoints = 0
accept = 0
rejected = 0
matrix size = 10
fillins = 0
solver = Normal
Matrix Compiler1:      30 opcodes
Matrix Compiler2: 774 bytes object code size
